
     RDKit          3D

 46 46  0  0  0  0  0  0  0  0999 V2000
   -1.5202   -0.1523    1.1284 N   0  0  0  0  0  0  0  0  0  0  0  0
   -2.4208   -1.2919    0.9826 C   0  0  2  0  0  0  0  0  0  0  0  0
   -3.7166   -0.7842    0.3195 C   0  0  0  0  0  0  0  0  0  0  0  0
   -4.0528    0.3995    0.3635 O   0  0  0  0  0  0  0  0  0  0  0  0
   -4.4864   -1.7713   -0.2615 N   0  0  0  0  0  0  0  0  0  0  0  0
   -5.6804   -1.4307   -0.9935 C   0  0  0  0  0  0  0  0  0  0  0  0
   -0.6228    0.1417    0.1174 C   0  0  0  0  0  0  0  0  0  0  0  0
    0.0717    1.5115    0.2802 C   0  0  1  0  0  0  0  0  0  0  0  0
   -0.3930   -0.6272   -0.8122 O   0  0  0  0  0  0  0  0  0  0  0  0
    1.1465    1.7242   -0.6953 N   0  0  0  0  0  0  0  0  0  0  0  0
   -0.9440    2.6281   -0.0171 C   0  0  0  0  0  0  0  0  0  0  0  0
    2.3557    1.0686   -0.7747 C   0  0  0  0  0  0  0  0  0  0  0  0
    0.7743    2.7313   -1.6665 C   0  0  0  0  0  0  0  0  0  0  0  0
   -0.1872    3.6166   -0.8967 C   0  0  0  0  0  0  0  0  0  0  0  0
    2.7620    0.1284    0.3798 C   0  0  1  0  0  0  0  0  0  0  0  0
    3.1369    1.2657   -1.7136 O   0  0  0  0  0  0  0  0  0  0  0  0
    3.7462   -0.8152   -0.1401 N   0  0  0  0  0  0  0  0  0  0  0  0
    3.3563    0.9436    1.5246 C   0  0  0  0  0  0  0  0  0  0  0  0
    4.0065   -2.0158    0.4645 C   0  0  0  0  0  0  0  0  0  0  0  0
    3.4761   -2.3761    1.5110 O   0  0  0  0  0  0  0  0  0  0  0  0
    5.0173   -2.8683   -0.2533 C   0  0  0  0  0  0  0  0  0  0  0  0
   -2.7393   -1.9020    2.3398 C   0  0  0  0  0  0  0  0  0  0  0  0
   -1.9266    0.6409    1.6130 H   0  0  0  0  0  0  0  0  0  0  0  0
   -1.9605   -2.0469    0.3357 H   0  0  0  0  0  0  0  0  0  0  0  0
   -4.0344   -2.6496   -0.4858 H   0  0  0  0  0  0  0  0  0  0  0  0
   -5.3916   -0.9930   -1.9528 H   0  0  0  0  0  0  0  0  0  0  0  0
   -6.2761   -0.7085   -0.4288 H   0  0  0  0  0  0  0  0  0  0  0  0
   -6.2583   -2.3424   -1.1602 H   0  0  0  0  0  0  0  0  0  0  0  0
    0.4814    1.5934    1.2907 H   0  0  0  0  0  0  0  0  0  0  0  0
   -1.3132    3.0985    0.8999 H   0  0  0  0  0  0  0  0  0  0  0  0
   -1.8153    2.2463   -0.5636 H   0  0  0  0  0  0  0  0  0  0  0  0
    0.2758    2.2272   -2.5019 H   0  0  0  0  0  0  0  0  0  0  0  0
    1.6431    3.2786   -2.0432 H   0  0  0  0  0  0  0  0  0  0  0  0
   -0.8452    4.1963   -1.5496 H   0  0  0  0  0  0  0  0  0  0  0  0
    0.3715    4.3165   -0.2634 H   0  0  0  0  0  0  0  0  0  0  0  0
    1.9030   -0.4471    0.7319 H   0  0  0  0  0  0  0  0  0  0  0  0
    4.1725   -0.5721   -1.0298 H   0  0  0  0  0  0  0  0  0  0  0  0
    2.6498    1.6871    1.9042 H   0  0  0  0  0  0  0  0  0  0  0  0
    4.2528    1.4832    1.1974 H   0  0  0  0  0  0  0  0  0  0  0  0
    3.6474    0.2976    2.3592 H   0  0  0  0  0  0  0  0  0  0  0  0
    4.5712   -3.8424   -0.4718 H   0  0  0  0  0  0  0  0  0  0  0  0
    5.8937   -2.9979    0.3873 H   0  0  0  0  0  0  0  0  0  0  0  0
    5.3368   -2.4147   -1.1956 H   0  0  0  0  0  0  0  0  0  0  0  0
   -3.4053   -2.7653    2.2385 H   0  0  0  0  0  0  0  0  0  0  0  0
   -3.2347   -1.1767    2.9955 H   0  0  0  0  0  0  0  0  0  0  0  0
   -1.8237   -2.2333    2.8412 H   0  0  0  0  0  0  0  0  0  0  0  0
  1  2  1  0
  2  3  1  0
  3  4  2  0
  3  5  1  0
  5  6  1  0
  7  1  1  0
  8  7  1  0
  7  9  2  0
 10  8  1  0
  8 11  1  0
 12 10  1  0
 13 10  1  0
 11 14  1  0
 15 12  1  0
 12 16  2  0
 14 13  1  0
 17 15  1  0
 15 18  1  0
 19 17  1  0
 19 20  2  0
 21 19  1  0
  2 22  1  0
  1 23  1  0
  2 24  1  6
  5 25  1  0
  6 26  1  0
  6 27  1  0
  6 28  1  0
  8 29  1  1
 11 30  1  0
 11 31  1  0
 13 32  1  0
 13 33  1  0
 14 34  1  0
 14 35  1  0
 15 36  1  1
 17 37  1  0
 18 38  1  0
 18 39  1  0
 18 40  1  0
 21 41  1  0
 21 42  1  0
 21 43  1  0
 22 44  1  0
 22 45  1  0
 22 46  1  0
M  END
