
     RDKit          3D

 55 54  0  0  0  0  0  0  0  0999 V2000
    2.0694   -0.3853    0.5112 N   0  0  0  0  0  0  0  0  0  0  0  0
    3.5148   -0.2632    0.6521 C   0  0  2  0  0  0  0  0  0  0  0  0
    4.0796   -1.6495    1.0153 C   0  0  0  0  0  0  0  0  0  0  0  0
    3.3504   -2.5865    1.3393 O   0  0  0  0  0  0  0  0  0  0  0  0
    5.4535   -1.7502    0.9524 N   0  0  0  0  0  0  0  0  0  0  0  0
    6.1310   -2.9604    1.3448 C   0  0  0  0  0  0  0  0  0  0  0  0
    1.3199    0.5087   -0.2110 C   0  0  0  0  0  0  0  0  0  0  0  0
   -0.1919    0.2037   -0.2582 C   0  0  1  0  0  0  0  0  0  0  0  0
    1.8186    1.4599   -0.8141 O   0  0  0  0  0  0  0  0  0  0  0  0
   -0.8574    1.4147   -0.7320 N   0  0  0  0  0  0  0  0  0  0  0  0
   -0.4638   -0.9761   -1.1986 C   0  0  0  0  0  0  0  0  0  0  0  0
   -1.4454    2.2904    0.1565 C   0  0  0  0  0  0  0  0  0  0  0  0
   -1.9382   -1.3998   -1.1705 C   0  0  0  0  0  0  0  0  0  0  0  0
   -1.8308    3.6530   -0.4520 C   0  0  1  0  0  0  0  0  0  0  0  0
   -1.6148    2.0311    1.3475 O   0  0  0  0  0  0  0  0  0  0  0  0
   -2.2461   -2.5573   -2.1213 C   0  0  0  0  0  0  0  0  0  0  0  0
   -2.8825    4.2373    0.3732 N   0  0  0  0  0  0  0  0  0  0  0  0
   -0.6096    4.5613   -0.4862 C   0  0  0  0  0  0  0  0  0  0  0  0
   -1.5521   -3.7745   -1.7452 N   0  0  0  0  0  0  0  0  0  0  0  0
   -4.2046    4.0144    0.0575 C   0  0  0  0  0  0  0  0  0  0  0  0
   -1.8271   -4.5153   -0.6513 C   0  0  0  0  0  0  0  0  0  0  0  0
   -4.5788    3.5078   -0.9951 O   0  0  0  0  0  0  0  0  0  0  0  0
   -5.1713    4.4467    1.1270 C   0  0  0  0  0  0  0  0  0  0  0  0
   -2.8574   -4.4763    0.1062 N   0  0  0  0  0  0  0  0  0  0  0  0
   -0.8453   -5.3974   -0.3888 N   0  0  0  0  0  0  0  0  0  0  0  0
    3.8746    0.7632    1.7205 C   0  0  0  0  0  0  0  0  0  0  0  0
    1.6331   -1.1785    0.9766 H   0  0  0  0  0  0  0  0  0  0  0  0
    3.9310    0.0393   -0.3160 H   0  0  0  0  0  0  0  0  0  0  0  0
    6.0078   -0.9168    0.8033 H   0  0  0  0  0  0  0  0  0  0  0  0
    7.1350   -2.9520    0.9143 H   0  0  0  0  0  0  0  0  0  0  0  0
    6.1963   -2.9850    2.4356 H   0  0  0  0  0  0  0  0  0  0  0  0
    5.5812   -3.8372    0.9925 H   0  0  0  0  0  0  0  0  0  0  0  0
   -0.5235   -0.0350    0.7589 H   0  0  0  0  0  0  0  0  0  0  0  0
   -0.4569    1.8234   -1.5699 H   0  0  0  0  0  0  0  0  0  0  0  0
   -0.1773   -0.7112   -2.2247 H   0  0  0  0  0  0  0  0  0  0  0  0
    0.1664   -1.8248   -0.9081 H   0  0  0  0  0  0  0  0  0  0  0  0
   -2.5681   -0.5500   -1.4597 H   0  0  0  0  0  0  0  0  0  0  0  0
   -2.2197   -1.6665   -0.1449 H   0  0  0  0  0  0  0  0  0  0  0  0
   -2.2038    3.4956   -1.4702 H   0  0  0  0  0  0  0  0  0  0  0  0
   -1.9499   -2.2866   -3.1412 H   0  0  0  0  0  0  0  0  0  0  0  0
   -3.3268   -2.7373   -2.1508 H   0  0  0  0  0  0  0  0  0  0  0  0
   -2.6691    4.2730    1.3645 H   0  0  0  0  0  0  0  0  0  0  0  0
    0.1818    4.1378   -1.1133 H   0  0  0  0  0  0  0  0  0  0  0  0
   -0.8704    5.5476   -0.8844 H   0  0  0  0  0  0  0  0  0  0  0  0
   -0.1940    4.7064    0.5176 H   0  0  0  0  0  0  0  0  0  0  0  0
   -0.5612   -3.7593   -1.9597 H   0  0  0  0  0  0  0  0  0  0  0  0
   -5.9937    4.9991    0.6639 H   0  0  0  0  0  0  0  0  0  0  0  0
   -4.6920    5.1000    1.8615 H   0  0  0  0  0  0  0  0  0  0  0  0
   -5.5612    3.5614    1.6359 H   0  0  0  0  0  0  0  0  0  0  0  0
   -3.5083   -3.7696   -0.2372 H   0  0  0  0  0  0  0  0  0  0  0  0
   -1.1456   -6.0020    0.3710 H   0  0  0  0  0  0  0  0  0  0  0  0
   -0.6039   -5.9588   -1.1953 H   0  0  0  0  0  0  0  0  0  0  0  0
    3.4505    1.7450    1.4854 H   0  0  0  0  0  0  0  0  0  0  0  0
    3.4886    0.4612    2.7008 H   0  0  0  0  0  0  0  0  0  0  0  0
    4.9590    0.8801    1.8141 H   0  0  0  0  0  0  0  0  0  0  0  0
  1  2  1  0
  2  3  1  0
  3  4  2  0
  3  5  1  0
  5  6  1  0
  7  1  1  0
  8  7  1  0
  7  9  2  0
 10  8  1  0
  8 11  1  0
 12 10  1  0
 11 13  1  0
 14 12  1  0
 12 15  2  0
 13 16  1  0
 17 14  1  0
 14 18  1  0
 16 19  1  0
 20 17  1  0
 19 21  1  0
 20 22  2  0
 23 20  1  0
 21 24  2  3
 21 25  1  0
  2 26  1  0
  1 27  1  0
  2 28  1  6
  5 29  1  0
  6 30  1  0
  6 31  1  0
  6 32  1  0
  8 33  1  1
 10 34  1  0
 11 35  1  0
 11 36  1  0
 13 37  1  0
 13 38  1  0
 14 39  1  6
 16 40  1  0
 16 41  1  0
 17 42  1  0
 18 43  1  0
 18 44  1  0
 18 45  1  0
 19 46  1  0
 23 47  1  0
 23 48  1  0
 23 49  1  0
 24 50  1  0
 25 51  1  0
 25 52  1  0
 26 53  1  0
 26 54  1  0
 26 55  1  0
M  END
