
     RDKit          3D

 46 46  0  0  0  0  0  0  0  0999 V2000
   -2.1309   -0.2828   -1.1418 N   0  0  0  0  0  0  0  0  0  0  0  0
   -3.0131    0.8289   -1.4811 C   0  0  2  0  0  0  0  0  0  0  0  0
   -3.9409    1.0758   -0.2752 C   0  0  0  0  0  0  0  0  0  0  0  0
   -4.2241    0.1850    0.5256 O   0  0  0  0  0  0  0  0  0  0  0  0
   -4.4732    2.3480   -0.2111 N   0  0  0  0  0  0  0  0  0  0  0  0
   -5.2889    2.7322    0.9139 C   0  0  0  0  0  0  0  0  0  0  0  0
   -0.9237   -0.0248   -0.5146 C   0  0  0  0  0  0  0  0  0  0  0  0
   -0.2334   -1.2716    0.0829 C   0  0  2  0  0  0  0  0  0  0  0  0
   -0.4790    1.1157   -0.3956 O   0  0  0  0  0  0  0  0  0  0  0  0
    1.1367   -1.1017    0.5709 N   0  0  0  0  0  0  0  0  0  0  0  0
   -0.1710   -2.4958   -0.8231 C   0  0  0  0  0  0  0  0  0  0  0  0
    1.9947   -0.3787   -0.2802 C   0  0  0  0  0  0  0  0  0  0  0  0
    1.6167   -2.4491    0.8288 C   0  0  0  0  0  0  0  0  0  0  0  0
    0.9192   -3.3583   -0.1856 C   0  0  0  0  0  0  0  0  0  0  0  0
    2.5773    0.8850    0.3845 C   0  0  1  0  0  0  0  0  0  0  0  0
    2.3802   -0.8072   -1.3677 O   0  0  0  0  0  0  0  0  0  0  0  0
    3.8963    0.5271    0.9151 N   0  0  0  0  0  0  0  0  0  0  0  0
    2.7322    1.9992   -0.6430 C   0  0  0  0  0  0  0  0  0  0  0  0
    4.0519    0.0732    2.2025 C   0  0  0  0  0  0  0  0  0  0  0  0
    3.1529    0.0395    3.0350 O   0  0  0  0  0  0  0  0  0  0  0  0
    5.4458   -0.3969    2.5241 C   0  0  0  0  0  0  0  0  0  0  0  0
   -3.8490    0.5040   -2.7114 C   0  0  0  0  0  0  0  0  0  0  0  0
   -2.6164   -1.1221   -0.8412 H   0  0  0  0  0  0  0  0  0  0  0  0
   -2.4164    1.7289   -1.6675 H   0  0  0  0  0  0  0  0  0  0  0  0
   -3.9825    3.0858   -0.7025 H   0  0  0  0  0  0  0  0  0  0  0  0
   -5.6976    3.7285    0.7260 H   0  0  0  0  0  0  0  0  0  0  0  0
   -6.0993    2.0079    1.0443 H   0  0  0  0  0  0  0  0  0  0  0  0
   -4.6693    2.7468    1.8171 H   0  0  0  0  0  0  0  0  0  0  0  0
   -0.8267   -1.5273    0.9742 H   0  0  0  0  0  0  0  0  0  0  0  0
   -1.1275   -3.0238   -0.8786 H   0  0  0  0  0  0  0  0  0  0  0  0
    0.1101   -2.2195   -1.8465 H   0  0  0  0  0  0  0  0  0  0  0  0
    1.3127   -2.7157    1.8482 H   0  0  0  0  0  0  0  0  0  0  0  0
    2.7081   -2.5172    0.7636 H   0  0  0  0  0  0  0  0  0  0  0  0
    1.6207   -3.7137   -0.9474 H   0  0  0  0  0  0  0  0  0  0  0  0
    0.5014   -4.2397    0.3110 H   0  0  0  0  0  0  0  0  0  0  0  0
    1.9225    1.2136    1.1989 H   0  0  0  0  0  0  0  0  0  0  0  0
    4.5822    0.2399    0.2282 H   0  0  0  0  0  0  0  0  0  0  0  0
    1.7765    2.2374   -1.1197 H   0  0  0  0  0  0  0  0  0  0  0  0
    3.4349    1.7172   -1.4358 H   0  0  0  0  0  0  0  0  0  0  0  0
    3.1151    2.9113   -0.1703 H   0  0  0  0  0  0  0  0  0  0  0  0
    6.1403   -0.2034    1.7023 H   0  0  0  0  0  0  0  0  0  0  0  0
    5.4237   -1.4725    2.7193 H   0  0  0  0  0  0  0  0  0  0  0  0
    5.8046    0.1334    3.4110 H   0  0  0  0  0  0  0  0  0  0  0  0
   -4.5155    1.3358   -2.9654 H   0  0  0  0  0  0  0  0  0  0  0  0
   -3.2058    0.3039   -3.5747 H   0  0  0  0  0  0  0  0  0  0  0  0
   -4.4726   -0.3823   -2.5474 H   0  0  0  0  0  0  0  0  0  0  0  0
  1  2  1  0
  2  3  1  0
  3  4  2  0
  3  5  1  0
  5  6  1  0
  7  1  1  0
  8  7  1  0
  7  9  2  0
 10  8  1  0
  8 11  1  0
 12 10  1  0
 13 10  1  0
 11 14  1  0
 15 12  1  0
 12 16  2  0
 14 13  1  0
 17 15  1  0
 15 18  1  0
 19 17  1  0
 19 20  2  0
 21 19  1  0
  2 22  1  0
  1 23  1  0
  2 24  1  6
  5 25  1  0
  6 26  1  0
  6 27  1  0
  6 28  1  0
  8 29  1  1
 11 30  1  0
 11 31  1  0
 13 32  1  0
 13 33  1  0
 14 34  1  0
 14 35  1  0
 15 36  1  1
 17 37  1  0
 18 38  1  0
 18 39  1  0
 18 40  1  0
 21 41  1  0
 21 42  1  0
 21 43  1  0
 22 44  1  0
 22 45  1  0
 22 46  1  0
M  END
