
     RDKit          3D

 55 54  0  0  0  0  0  0  0  0999 V2000
   -1.6864   -1.4769   -0.0100 N   0  0  0  0  0  0  0  0  0  0  0  0
   -2.5477   -2.5615    0.4495 C   0  0  2  0  0  0  0  0  0  0  0  0
   -3.7544   -2.6312   -0.5064 C   0  0  0  0  0  0  0  0  0  0  0  0
   -3.9332   -1.7867   -1.3847 O   0  0  0  0  0  0  0  0  0  0  0  0
   -4.5999   -3.7001   -0.2974 N   0  0  0  0  0  0  0  0  0  0  0  0
   -5.7251   -3.9378   -1.1683 C   0  0  0  0  0  0  0  0  0  0  0  0
   -0.3500   -1.4254    0.2868 C   0  0  0  0  0  0  0  0  0  0  0  0
    0.4206   -0.2383   -0.3286 C   0  0  2  0  0  0  0  0  0  0  0  0
    0.2027   -2.2586    1.0063 O   0  0  0  0  0  0  0  0  0  0  0  0
    1.8407   -0.5245   -0.1342 N   0  0  0  0  0  0  0  0  0  0  0  0
    0.0374    1.0936    0.3388 C   0  0  0  0  0  0  0  0  0  0  0  0
    2.8172    0.0684   -0.8968 C   0  0  0  0  0  0  0  0  0  0  0  0
   -1.0899    1.8231   -0.4055 C   0  0  0  0  0  0  0  0  0  0  0  0
    4.2518   -0.4200   -0.6186 C   0  0  1  0  0  0  0  0  0  0  0  0
    2.5655    0.9299   -1.7406 O   0  0  0  0  0  0  0  0  0  0  0  0
   -1.3846    3.2087    0.1747 C   0  0  0  0  0  0  0  0  0  0  0  0
    5.1303    0.1944   -1.6074 N   0  0  0  0  0  0  0  0  0  0  0  0
    4.6863   -0.0633    0.7975 C   0  0  0  0  0  0  0  0  0  0  0  0
   -2.0808    3.0976    1.4449 N   0  0  0  0  0  0  0  0  0  0  0  0
    6.3385   -0.3526   -1.9519 C   0  0  0  0  0  0  0  0  0  0  0  0
   -2.5555    4.1629    2.1277 C   0  0  0  0  0  0  0  0  0  0  0  0
    6.7976   -1.3620   -1.4280 O   0  0  0  0  0  0  0  0  0  0  0  0
    7.0668    0.3845   -3.0436 C   0  0  0  0  0  0  0  0  0  0  0  0
   -2.7076    5.3705    1.7329 N   0  0  0  0  0  0  0  0  0  0  0  0
   -2.9106    3.8250    3.3823 N   0  0  0  0  0  0  0  0  0  0  0  0
   -3.0008   -2.3270    1.8850 C   0  0  0  0  0  0  0  0  0  0  0  0
   -2.0633   -0.9145   -0.7694 H   0  0  0  0  0  0  0  0  0  0  0  0
   -1.9911   -3.5029    0.3734 H   0  0  0  0  0  0  0  0  0  0  0  0
   -4.2795   -4.4667    0.2825 H   0  0  0  0  0  0  0  0  0  0  0  0
   -5.3686   -4.4440   -2.0696 H   0  0  0  0  0  0  0  0  0  0  0  0
   -6.2023   -2.9937   -1.4441 H   0  0  0  0  0  0  0  0  0  0  0  0
   -6.4392   -4.5759   -0.6434 H   0  0  0  0  0  0  0  0  0  0  0  0
    0.2332   -0.2185   -1.4088 H   0  0  0  0  0  0  0  0  0  0  0  0
    2.0637   -1.3200    0.4605 H   0  0  0  0  0  0  0  0  0  0  0  0
   -0.2500    0.9176    1.3832 H   0  0  0  0  0  0  0  0  0  0  0  0
    0.9079    1.7628    0.3686 H   0  0  0  0  0  0  0  0  0  0  0  0
   -0.7940    1.9483   -1.4551 H   0  0  0  0  0  0  0  0  0  0  0  0
   -2.0064    1.2235   -0.3976 H   0  0  0  0  0  0  0  0  0  0  0  0
    4.2784   -1.5068   -0.7605 H   0  0  0  0  0  0  0  0  0  0  0  0
   -0.4578    3.7817    0.2976 H   0  0  0  0  0  0  0  0  0  0  0  0
   -2.0192    3.7476   -0.5389 H   0  0  0  0  0  0  0  0  0  0  0  0
    4.7268    0.9411   -2.1681 H   0  0  0  0  0  0  0  0  0  0  0  0
    4.0472   -0.5445    1.5458 H   0  0  0  0  0  0  0  0  0  0  0  0
    5.7181   -0.3776    0.9858 H   0  0  0  0  0  0  0  0  0  0  0  0
    4.6316    1.0177    0.9660 H   0  0  0  0  0  0  0  0  0  0  0  0
   -1.6578    2.4306    2.0811 H   0  0  0  0  0  0  0  0  0  0  0  0
    7.1082   -0.2473   -3.9342 H   0  0  0  0  0  0  0  0  0  0  0  0
    6.5701    1.3246   -3.3003 H   0  0  0  0  0  0  0  0  0  0  0  0
    8.0808    0.6133   -2.7042 H   0  0  0  0  0  0  0  0  0  0  0  0
   -2.4055    5.4563    0.7624 H   0  0  0  0  0  0  0  0  0  0  0  0
   -3.5277    3.0233    3.3971 H   0  0  0  0  0  0  0  0  0  0  0  0
   -3.3743    4.6211    3.8139 H   0  0  0  0  0  0  0  0  0  0  0  0
   -2.1444   -2.2360    2.5610 H   0  0  0  0  0  0  0  0  0  0  0  0
   -3.5865   -1.4041    1.9659 H   0  0  0  0  0  0  0  0  0  0  0  0
   -3.6273   -3.1492    2.2448 H   0  0  0  0  0  0  0  0  0  0  0  0
  1  2  1  0
  2  3  1  0
  3  4  2  0
  3  5  1  0
  5  6  1  0
  7  1  1  0
  8  7  1  0
  7  9  2  0
 10  8  1  0
  8 11  1  0
 12 10  1  0
 11 13  1  0
 14 12  1  0
 12 15  2  0
 13 16  1  0
 17 14  1  0
 14 18  1  0
 16 19  1  0
 20 17  1  0
 19 21  1  0
 20 22  2  0
 23 20  1  0
 21 24  2  3
 21 25  1  0
  2 26  1  0
  1 27  1  0
  2 28  1  1
  5 29  1  0
  6 30  1  0
  6 31  1  0
  6 32  1  0
  8 33  1  6
 10 34  1  0
 11 35  1  0
 11 36  1  0
 13 37  1  0
 13 38  1  0
 14 39  1  1
 16 40  1  0
 16 41  1  0
 17 42  1  0
 18 43  1  0
 18 44  1  0
 18 45  1  0
 19 46  1  0
 23 47  1  0
 23 48  1  0
 23 49  1  0
 24 50  1  0
 25 51  1  0
 25 52  1  0
 26 53  1  0
 26 54  1  0
 26 55  1  0
M  END
